%chk=gaussjob.chk
%nprocs=1
# HF/3-21G  force

Generated by ASE Gaussian driver

-1 2
H       0.000000000000000      0.000000000000000      0.000000000000000
O       1.090000000000000      0.000000000000000      0.000000000000000
H       1.636646703503808      0.000000000000000      0.943015048420978

