# HF/3-21G force

Generated by ASE Gaussian driver

0 1
H       0.109482156576103      0.063679598533990      0.108621801355171
H      -0.109482165912235     -0.063679592492790      0.799378244077433
H       3.233330223448947      1.025066268191340      1.491203536701897
O       3.893090706454824      0.316662342148531      1.409875020267525
H       4.250056736614414      0.237106634409162      2.309864179998141
H       0.966771352852821      1.471127312705048      1.587907736893097
O       1.704201542008475      1.925594073015639      2.016386616485245
H       1.410672758818272      2.140877886869855      2.911613516937388
C       1.784949868367019     -2.274864227421355      2.200326517713620
H       2.488492822448623     -1.506616001167548      1.900048839663194
H       1.323404263993072     -2.706668895619903      1.319494471906716
H       2.306452243111653     -3.044828559935530      2.757583109515864
H       1.024380123472596     -1.839175799335379      2.838334328087874

