%chk=gaussjob.chk
%nprocs=2
# HF/3-21G guess=read force

Generated by ASE Gaussian driver

0 1
H       0.000000000000000      0.000000000000000      0.000000000000000
H       0.000000000000000      0.000000000000000      0.908000000000000
H       2.999507604503137      0.999778254546030      1.453438591264011
O       3.958810675661454      1.000465335343706      1.454455149443992
H       4.439032016555999      1.000771522704907      2.284907591070290

