%chk=gaussjob.chk
%nprocs=1
# HF/3-21G guess=read force

Generated by ASE Gaussian driver

0 1
H       0.000000000000000      0.000000000000000      0.000000000000000
H       0.000000000000000      0.000000000000000      0.908000000000000
H       0.277327491499386      1.695907373888489      1.936592218980954
O       1.297659842018680      1.948510717715520      2.225059626448725
H       1.487831996638096      2.813386594112057      2.860609994267619

