%chk=gaussjob.chk
%nprocs=1
# HF/3-21G  force

Generated by ASE Gaussian driver

0 1
H       0.000000000000000      0.000000000000000      0.000000000000000
O      -0.050650397294176     -0.537931254123148      0.946659655362707
H      -0.725219931399409     -0.198675322925124      1.732764837131668
H       0.000000000000000      0.000000000000000      3.000000000000000
O       0.927362901771285     -0.491526154311602      3.294108973079689
H       1.233558528539066     -0.500133601130846      4.340182655956541
H       0.000000000000000      0.000000000000000      6.000000000000000
O      -0.146322606669444     -0.726547645817665      6.799261041922017
H      -0.845387978303122     -0.515606345565721      7.608526989575005
H       0.000000000000000      3.000000000000000      0.000000000000000
O      -0.464188220469308      2.489139307105100      0.843593888332816
H      -0.650927011657798      3.027169598225349      1.772976495068342
H       0.000000000000000      3.000000000000000      3.000000000000000
O       0.985672542811994      2.903911086168014      3.455320281763427
H       1.772538192408416      3.617583561403594      3.211160400586520
H       0.000000000000000      3.000000000000000      6.000000000000000
O      -0.168181429397057      2.379315291718637      6.880094028903526
H      -0.712109702915135      2.779767026203694      7.735594140893905
H       0.000000000000000      6.000000000000000      0.000000000000000
O      -0.817561287649981      5.366973852735818      0.344922364911251
H      -1.345697617463941      5.610166230776047      1.266892800659480
H       0.000000000000000      6.000000000000000      3.000000000000000
O       0.027643344373690      6.238469975235931      4.063234647866036
H       0.246174114613218      7.255136556945602      4.389935373444191
H       0.000000000000000      6.000000000000000      6.000000000000000
O       0.611125044882381      6.624086344465615      6.652029458053127
H       0.926305993195869      7.614209393393155      6.322761606900539
H       3.000000000000000      0.000000000000000      0.000000000000000
O       1.962809183569262     -0.239805452692832      0.234154981092707
H       1.618033807522993     -0.223757410851584      1.268066196055198
H       3.000000000000000      0.000000000000000      3.000000000000000
O       2.239453106502319     -0.467800715774145      3.625164708786592
H       1.939045401165674     -0.000101573995440      4.562774821442078
H       3.000000000000000      0.000000000000000      6.000000000000000
O       2.859616455377791     -0.317982545568259      7.033092232626514
H       3.313761181678645      0.248655164473897      7.845972465582946
H       3.000000000000000      3.000000000000000      0.000000000000000
O       3.499876128163391      2.985523033186862      0.968511370054203
H       4.199909393941024      3.777627926716058      1.234261750019692
H       3.000000000000000      3.000000000000000      3.000000000000000
O       2.621916305644919      2.493167714515637      3.887847821675265
H       1.782054286842282      2.913356573342211      4.441176939191034
H       3.000000000000000      3.000000000000000      6.000000000000000
O       2.959830439290724      3.910775860062764      6.597472793622735
H       2.578664669557151      4.834201130769770      6.161470012206027
H       3.000000000000000      6.000000000000000      0.000000000000000
O       2.252401356532133      6.458032217210932      0.647613122382370
H       1.916568910781724      7.477679212889423      0.458836607462939

